@<TRIPOS>MOLECULE
3RFM.A
24 25 1 0 0 
SMALL
USER_CHARGES


@<TRIPOS>ATOM
  1 N1       9.0839   -33.2772   -32.1097 N.am  1 CFF  -0.4201 
  2 C2       9.2725   -34.2366   -33.0659 C.2   1 CFF   0.6900 
  3 C10     10.2937   -33.2637   -31.1254 C.3   1 CFF   0.0601 
  4 H101    11.2315   -33.0170   -31.5915 H     1 CFF   0.0800 
  5 H102    10.5075   -34.2369   -30.7692 H     1 CFF   0.0800 
  6 H103    10.2160   -32.7737   -30.1797 H     1 CFF   0.0800 
  7 C6       7.7587   -32.7609   -32.0723 C.2   1 CFF   0.7150 
  8 N3       8.3072   -34.6271   -33.9594 N.am  1 CFF  -0.4231 
  9 O11     10.3301   -34.7913   -33.0954 O.2   1 CFF  -0.5700 
 10 C12      8.7243   -35.5811   -34.8876 C.3   1 CFF   0.0601 
 11 H121     9.4270   -36.3143   -34.5140 H     1 CFF   0.0800 
 12 H122     9.1414   -35.0168   -35.6908 H     1 CFF   0.0800 
 13 H123     7.9384   -36.1468   -35.2740 H     1 CFF   0.0800 
 14 C4       7.1294   -33.9207   -34.1017 C.2   1 CFF   0.2902 
 15 C5       6.8712   -33.0225   -33.1455 C.2   1 CFF  -0.2366 
 16 N9       6.0902   -34.1451   -34.9020 N.2   1 CFF  -0.5653 
 17 O13      7.2645   -32.3893   -31.0515 O.2   1 CFF  -0.5700 
 18 N7       5.5397   -32.8359   -33.2359 N.pl3 1 CFF   0.0476 
 19 C8       5.1227   -33.4698   -34.3524 C.2   1 CFF   0.0365 
 20 H8       4.1059   -33.4341   -34.6559 H     1 CFF   0.1500 
 21 C14      4.6414   -32.2960   -32.1981 C.3   1 CFF   0.0156 
 22 H141     4.4342   -32.8335   -31.3026 H     1 CFF   0.0800 
 23 H142     3.6946   -32.0470   -32.6485 H     1 CFF   0.0800 
 24 H143     5.0803   -31.4609   -31.7141 H     1 CFF   0.0800 
@<TRIPOS>BOND
  1   1   2  am  
  2   1   3  1   
  3   1   7  am  
  4   2   8  am  
  5   2   9  2   
  6   3   4  1   
  7   3   5  1   
  8   3   6  1   
  9   7  15  1   
 10   7  17  2   
 11   8  10  1   
 12   8  14  1   
 13  10  11  1   
 14  10  12  1   
 15  10  13  1   
 16  14  15  2   
 17  14  16  1   
 18  15  18  1   
 19  16  19  2   
 20  18  19  1   
 21  18  21  1   
 22  19  20  1   
 23  21  22  1   
 24  21  23  1   
 25  21  24  1   
@<TRIPOS>SUBSTRUCTURE
  1 CFF  15 GROUP 4 A **** 0

# MOE 2022.02 (io_trps.svl 2020.11)
