@<TRIPOS>MOLECULE
LIG
   24    25     1     0     0
SMALL
bcc


@<TRIPOS>ATOM
      1 N1           9.0840   -33.2770   -32.1100 N.am       1 LIG      -0.483400
      2 C2           9.2730   -34.2370   -33.0660 C.2        1 LIG       0.814500
      3 C10         10.2940   -33.2640   -31.1250 C.3        1 LIG       0.080300
      4 H101        11.2320   -33.0170   -31.5910 H          1 LIG       0.063367
      5 H102        10.5080   -34.2370   -30.7690 H          1 LIG       0.063367
      6 H103        10.2160   -32.7740   -30.1800 H          1 LIG       0.063367
      7 C6           7.7590   -32.7610   -32.0720 C.2        1 LIG       0.765100
      8 N3           8.3070   -34.6270   -33.9590 N.am       1 LIG      -0.417300
      9 O11         10.3300   -34.7910   -33.0950 O.2        1 LIG      -0.637500
     10 C12          8.7240   -35.5810   -34.8880 C.3        1 LIG       0.090300
     11 H121         9.4270   -36.3140   -34.5140 H          1 LIG       0.063367
     12 H122         9.1410   -35.0170   -35.6910 H          1 LIG       0.063367
     13 H123         7.9380   -36.1470   -35.2740 H          1 LIG       0.063367
     14 C4           7.1290   -33.9210   -34.1020 C.2        1 LIG       0.485200
     15 C5           6.8710   -33.0230   -33.1450 C.2        1 LIG      -0.350200
     16 N9           6.0900   -34.1450   -34.9020 N.2        1 LIG      -0.685000
     17 O13          7.2640   -32.3890   -31.0520 O.2        1 LIG      -0.633500
     18 N7           5.5400   -32.8360   -33.2360 N.pl3      1 LIG      -0.148900
     19 C8           5.1230   -33.4700   -34.3520 C.2        1 LIG       0.443400
     20 H8           4.1060   -33.4340   -34.6560 H          1 LIG       0.071100
     21 C14          4.6410   -32.2960   -32.1980 C.3        1 LIG       0.009600
     22 H141         4.4340   -32.8340   -31.3030 H          1 LIG       0.071700
     23 H142         3.6950   -32.0470   -32.6480 H          1 LIG       0.071700
     24 H143         5.0800   -31.4610   -31.7140 H          1 LIG       0.071700
@<TRIPOS>BOND
     1     1     2 am  
     2     1     3 1   
     3     1     7 am  
     4     2     8 am  
     5     2     9 2   
     6     3     4 1   
     7     3     5 1   
     8     3     6 1   
     9     7    15 1   
    10     7    17 2   
    11     8    10 1   
    12     8    14 1   
    13    10    11 1   
    14    10    12 1   
    15    10    13 1   
    16    14    15 2   
    17    14    16 1   
    18    15    18 1   
    19    16    19 2   
    20    18    19 1   
    21    18    21 1   
    22    19    20 1   
    23    21    22 1   
    24    21    23 1   
    25    21    24 1   
@<TRIPOS>SUBSTRUCTURE
     1 LIG         1 TEMP              0 ****  ****    0 ROOT
